powerflow/autotest/test_capacitor_manual_single_BCN_fix.glm
// $id$
//	Copyright (C) 2008 Battelle Memorial Institute

// 3 Node system
// Swing node and load connected by transmission lines
// Capacitor node right in the middle with manual control


clock {
	timezone EST+5EDT;
	starttime '2000-01-01 0:00:00';
	stoptime '2000-01-01 0:00:01';
}
#set relax_naming_rules=1

module powerflow;
module assert;

object overhead_line_conductor:100 {
	geometric_mean_radius 0.0244;
	resistance 0.306;
}

object overhead_line_conductor:101 {
	geometric_mean_radius 0.00814;
	resistance 0.592;
}

object line_spacing:200 {
	distance_AB 2.5;
	distance_BC 4.5;
	distance_AC 7.0;
	distance_AN 5.656854;
	distance_BN 4.272002;
	distance_CN 5.0;
}

object line_configuration:300 {
	conductor_A overhead_line_conductor:100;
	conductor_B overhead_line_conductor:100;
	conductor_C overhead_line_conductor:100;
	conductor_N overhead_line_conductor:101;
	spacing line_spacing:200;
}


object node {
	phases "ABCN";
	name TopNode;
	bustype SWING;
	voltage_A +7199.558+0.000j;
	voltage_B -3599.779-6235.000j;
	voltage_C -3599.779+6235.000j;
	nominal_voltage 7200;
}

object overhead_line {
	phases "ABCN";
	from TopNode;
	to CapNode;
	length 2000;
	configuration line_configuration:300;
}

object capacitor {
	phases ABCN;
	name CapNode;
	phases_connected ABCN;
	control MANUAL;
	capacitor_A 0.5 MVAr;
	capacitor_B 0.5 MVAr;
	capacitor_C 0.5 MVAr;
	control_level INDIVIDUAL;
	switchA OPEN;
	switchB CLOSED;
	switchC CLOSED;
	nominal_voltage 7200;
 }


object overhead_line {
	phases "ABCN";
	from CapNode;
	to BottomLoad;
	length 2500;
	configuration line_configuration:300;
}

object load {
	phases "ABCN";
	name BottomLoad;
	constant_power_A +5000.000-120.0j;
	constant_power_B +2000.000+230.0j;
	constant_power_C +2300.000+450.0j;
	nominal_voltage 7200;
	object complex_assert {
	  parent "BottomLoad";
	  name "BottomLoad_complex_assert_0";
		target "voltage_A";
		value 7187.57+0.00720108d;
		within 0.1;
	};
	object complex_assert {
	  parent "BottomLoad";
	  name "BottomLoad_complex_assert_1";
		target "voltage_B";
		value 7218.09-120.159d;
		within 0.1;
	};
	object complex_assert {
	  parent "BottomLoad";
	  name "BottomLoad_complex_assert_2";
		target "voltage_C";
		value 7225.5+119.996d;
		within 0.1;
	};
}